Missing ".ends" statement in file "C:\Users\kenny\Downloads\Zener Diodes.spice.txt"
Missing ".ends" statement in file "C:\Users\kenny\Downloads\Zener Diodes.spice.txt"
Circuit: * C:\Users\kenny\Downloads\slum808\TPS62932_PSPICE_TRANS\Draft1.asc

Warning: Multiple definitions of model "1smb5929b" Type: Diode
Error on line 6641 : .simulator default
	 Unknown control card
Direct Newton iteration for .op point succeeded.

Date: Fri Mar  8 21:20:04 2024
Total elapsed time: 0.130 seconds.

tnom = 27
temp = 27
method = modified trap
totiter = 2108
traniter = 2097
tranpoints = 1045
accept = 1045
rejected = 0
matrix size = 9
fillins = 6
solver = Normal
Avg thread counts: 3.8/6.6/6.6/3.8
Matrix Compiler1: 794 bytes object code size  0.2/0.1/[0.1]
Matrix Compiler2: off  [0.1]/0.2/0.1

